<configuration>
	<input>
		<net-file value="first.net.xml"/>
		<route-files value="first.rou.xml"/>
		<gui-settings-file value="first.xml"/>
		</input>
	<time>
		<begin value="0"/>
	</time>
</configuration>