<?xml version="1.0" encoding="UTF-8"?>

<!-- generated on Thu 16 Apr 2020 03:48:57 PM EDT by Eclipse SUMO netedit Version 1.5.0
<configuration xmlns:xsi="http://www.w3.org/2001/XMLSchema-instance" xsi:noNamespaceSchemaLocation="http://sumo.dlr.de/xsd/netconvertConfiguration.xsd">

    <input>
        <sumo-net-file value="/home/ryan/Documents/GradSchool/ReinforcementLearning/Projects/RL_TrafficLights/MyFirstTraCl/data/first.net.xml"/>
    </input>

    <output>
        <output-file value="/home/ryan/Documents/GradSchool/ReinforcementLearning/Projects/RL_TrafficLights/MyFirstTraCl/data/first.net.xml"/>
    </output>

    <processing>
        <geometry.min-radius.fix.railways value="false"/>
        <geometry.max-grade.fix value="false"/>
        <offset.disable-normalization value="true"/>
        <lefthand value="false"/>
    </processing>

    <junctions>
        <no-turnarounds value="true"/>
        <junctions.corner-detail value="5"/>
        <junctions.limit-turn-speed value="5.5"/>
        <rectangular-lane-cut value="false"/>
    </junctions>

    <pedestrian>
        <walkingareas value="false"/>
    </pedestrian>

    <report>
        <aggregate-warnings value="5"/>
    </report>

</configuration>
-->

<net version="1.3" junctionCornerDetail="5" limitTurnSpeed="5.50" xmlns:xsi="http://www.w3.org/2001/XMLSchema-instance" xsi:noNamespaceSchemaLocation="http://sumo.dlr.de/xsd/net_file.xsd">

    <location netOffset="0.00,0.00" convBoundary="0.00,0.00,2000.00,2000.00" origBoundary="-10000000000.00,-10000000000.00,10000000000.00,10000000000.00" projParameter="!"/>

    <edge id=":C_0" function="internal">
        <lane id=":C_0_0" index="0" speed="6.51" length="9.03" shape="998.40,1007.20 998.05,1004.75 997.00,1003.00 995.25,1001.95 992.80,1001.60"/>
    </edge>
    <edge id=":C_1" function="internal">
        <lane id=":C_1_0" index="0" speed="13.89" length="14.40" shape="998.40,1007.20 998.40,992.80"/>
    </edge>
    <edge id=":C_2" function="internal">
        <lane id=":C_2_0" index="0" speed="8.00" length="5.93" shape="998.40,1007.20 998.95,1003.35 1000.00,1001.60"/>
    </edge>
    <edge id=":C_12" function="internal">
        <lane id=":C_12_0" index="0" speed="8.00" length="8.26" shape="1000.00,1001.60 1000.60,1000.60 1003.35,998.95 1007.20,998.40"/>
    </edge>
    <edge id=":C_3" function="internal">
        <lane id=":C_3_0" index="0" speed="6.51" length="9.03" shape="1007.20,1001.60 1004.75,1001.95 1003.00,1003.00 1001.95,1004.75 1001.60,1007.20"/>
    </edge>
    <edge id=":C_4" function="internal">
        <lane id=":C_4_0" index="0" speed="13.89" length="14.40" shape="1007.20,1001.60 992.80,1001.60"/>
    </edge>
    <edge id=":C_5" function="internal">
        <lane id=":C_5_0" index="0" speed="8.00" length="5.93" shape="1007.20,1001.60 1003.35,1001.05 1001.60,1000.00"/>
    </edge>
    <edge id=":C_13" function="internal">
        <lane id=":C_13_0" index="0" speed="8.00" length="8.26" shape="1001.60,1000.00 1000.60,999.40 998.95,996.65 998.40,992.80"/>
    </edge>
    <edge id=":C_6" function="internal">
        <lane id=":C_6_0" index="0" speed="6.51" length="9.03" shape="1001.60,992.80 1001.95,995.25 1003.00,997.00 1004.75,998.05 1007.20,998.40"/>
    </edge>
    <edge id=":C_7" function="internal">
        <lane id=":C_7_0" index="0" speed="13.89" length="14.40" shape="1001.60,992.80 1001.60,1007.20"/>
    </edge>
    <edge id=":C_8" function="internal">
        <lane id=":C_8_0" index="0" speed="8.00" length="5.93" shape="1001.60,992.80 1001.05,996.65 1000.00,998.40"/>
    </edge>
    <edge id=":C_14" function="internal">
        <lane id=":C_14_0" index="0" speed="8.00" length="8.26" shape="1000.00,998.40 999.40,999.40 996.65,1001.05 992.80,1001.60"/>
    </edge>
    <edge id=":C_9" function="internal">
        <lane id=":C_9_0" index="0" speed="6.51" length="9.03" shape="992.80,998.40 995.25,998.05 997.00,997.00 998.05,995.25 998.40,992.80"/>
    </edge>
    <edge id=":C_10" function="internal">
        <lane id=":C_10_0" index="0" speed="13.89" length="14.40" shape="992.80,998.40 1007.20,998.40"/>
    </edge>
    <edge id=":C_11" function="internal">
        <lane id=":C_11_0" index="0" speed="8.00" length="5.93" shape="992.80,998.40 996.65,998.95 998.40,1000.00"/>
    </edge>
    <edge id=":C_15" function="internal">
        <lane id=":C_15_0" index="0" speed="8.00" length="8.26" shape="998.40,1000.00 999.40,1000.60 1001.05,1003.35 1001.60,1007.20"/>
    </edge>

    <edge id="CE" from="C" to="E" priority="-1" length="1000.00">
        <lane id="CE_0" index="0" speed="13.89" length="1000.00" shape="1007.20,998.40 2000.00,998.40"/>
    </edge>
    <edge id="CN" from="C" to="N" priority="-1" length="1000.00">
        <lane id="CN_0" index="0" speed="13.89" length="1000.00" shape="1001.60,1007.20 1001.60,2000.00"/>
    </edge>
    <edge id="CS" from="C" to="S" priority="-1" length="1000.00">
        <lane id="CS_0" index="0" speed="13.89" length="1000.00" shape="998.40,992.80 998.40,0.00"/>
    </edge>
    <edge id="CW" from="C" to="W" priority="-1" length="1000.00">
        <lane id="CW_0" index="0" speed="13.89" length="1000.00" shape="992.80,1001.60 0.00,1001.60"/>
    </edge>
    <edge id="EC" from="E" to="C" priority="-1" length="1000.00">
        <lane id="EC_0" index="0" speed="13.89" length="1000.00" shape="2000.00,1001.60 1007.20,1001.60"/>
    </edge>
    <edge id="NS" from="N" to="C" priority="-1" length="1000.00">
        <lane id="NS_0" index="0" speed="13.89" length="1000.00" shape="998.40,2000.00 998.40,1007.20"/>
    </edge>
    <edge id="SC" from="S" to="C" priority="-1" length="1000.00">
        <lane id="SC_0" index="0" speed="13.89" length="1000.00" shape="1001.60,0.00 1001.60,992.80"/>
    </edge>
    <edge id="WC" from="W" to="C" priority="-1" length="1000.00">
        <lane id="WC_0" index="0" speed="13.89" length="1000.00" shape="0.00,998.40 992.80,998.40"/>
    </edge>

    <tlLogic id="gneJ1" type="static" programID="0" offset="0">
        <phase duration="10000"  state="GGgrrrGGgrrr"/>
        <phase duration="3"  state="yyyrrryyyrrr"/>
        <phase duration="10000"  state="rrrGGgrrrGGg"/>
        <phase duration="3"  state="rrryyyrrryyy"/>
    </tlLogic>

    <junction id="C" type="traffic_light" x="1000.00" y="1000.00" incLanes="NS_0 EC_0 SC_0 WC_0" intLanes=":C_0_0 :C_1_0 :C_12_0 :C_3_0 :C_4_0 :C_13_0 :C_6_0 :C_7_0 :C_14_0 :C_9_0 :C_10_0 :C_15_0" shape="996.80,1007.20 1003.20,1007.20 1003.64,1004.98 1004.20,1004.20 1004.98,1003.64 1005.98,1003.31 1007.20,1003.20 1007.20,996.80 1004.98,996.36 1004.20,995.80 1003.64,995.02 1003.31,994.02 1003.20,992.80 996.80,992.80 996.36,995.02 995.80,995.80 995.02,996.36 994.02,996.69 992.80,996.80 992.80,1003.20 995.02,1003.64 995.80,1004.20 996.36,1004.98 996.69,1005.98">
        <request index="0"  response="000000000000" foes="000100010000" cont="0"/>
        <request index="1"  response="100000100000" foes="111100110000" cont="0"/>
        <request index="2"  response="100011100000" foes="110011110000" cont="1"/>
        <request index="3"  response="000010000000" foes="100010000000" cont="0"/>
        <request index="4"  response="000110000111" foes="100110000111" cont="0"/>
        <request index="5"  response="011110000110" foes="011110000110" cont="1"/>
        <request index="6"  response="000000000000" foes="010000000100" cont="0"/>
        <request index="7"  response="100000100000" foes="110000111100" cont="0"/>
        <request index="8"  response="100000100011" foes="110000110011" cont="1"/>
        <request index="9"  response="000000000010" foes="000000100010" cont="0"/>
        <request index="10" response="000111000110" foes="000111100110" cont="0"/>
        <request index="11" response="000110011110" foes="000110011110" cont="1"/>
    </junction>
    <junction id="E" type="dead_end" x="2000.00" y="1000.00" incLanes="CE_0" intLanes="" shape="2000.00,1000.00 2000.00,996.80 2000.00,1000.00"/>
    <junction id="N" type="dead_end" x="1000.00" y="2000.00" incLanes="CN_0" intLanes="" shape="1000.00,2000.00 1003.20,2000.00 1000.00,2000.00"/>
    <junction id="S" type="dead_end" x="1000.00" y="0.00" incLanes="CS_0" intLanes="" shape="1000.00,0.00 996.80,0.00 1000.00,0.00"/>
    <junction id="W" type="dead_end" x="0.00" y="1000.00" incLanes="CW_0" intLanes="" shape="0.00,1000.00 0.00,1003.20 0.00,1000.00"/>

    <junction id=":C_12_0" type="internal" x="1000.00" y="1001.60" incLanes=":C_2_0 SC_0" intLanes=":C_4_0 :C_5_0 :C_6_0 :C_7_0 :C_10_0 :C_11_0"/>
    <junction id=":C_13_0" type="internal" x="1001.60" y="1000.00" incLanes=":C_5_0 WC_0" intLanes=":C_1_0 :C_2_0 :C_7_0 :C_8_0 :C_9_0 :C_10_0"/>
    <junction id=":C_14_0" type="internal" x="1000.00" y="998.40" incLanes=":C_8_0 NS_0" intLanes=":C_0_0 :C_1_0 :C_4_0 :C_5_0 :C_10_0 :C_11_0"/>
    <junction id=":C_15_0" type="internal" x="998.40" y="1000.00" incLanes=":C_11_0 EC_0" intLanes=":C_1_0 :C_2_0 :C_3_0 :C_4_0 :C_7_0 :C_8_0"/>

    <connection from="EC" to="CN" fromLane="0" toLane="0" via=":C_3_0" tl="gneJ1" linkIndex="3" dir="r" state="o"/>
    <connection from="EC" to="CW" fromLane="0" toLane="0" via=":C_4_0" tl="gneJ1" linkIndex="4" dir="s" state="o"/>
    <connection from="EC" to="CS" fromLane="0" toLane="0" via=":C_5_0" tl="gneJ1" linkIndex="5" dir="l" state="o"/>
    <connection from="NS" to="CW" fromLane="0" toLane="0" via=":C_0_0" tl="gneJ1" linkIndex="0" dir="r" state="O"/>
    <connection from="NS" to="CS" fromLane="0" toLane="0" via=":C_1_0" tl="gneJ1" linkIndex="1" dir="s" state="O"/>
    <connection from="NS" to="CE" fromLane="0" toLane="0" via=":C_2_0" tl="gneJ1" linkIndex="2" dir="l" state="o"/>
    <connection from="SC" to="CE" fromLane="0" toLane="0" via=":C_6_0" tl="gneJ1" linkIndex="6" dir="r" state="O"/>
    <connection from="SC" to="CN" fromLane="0" toLane="0" via=":C_7_0" tl="gneJ1" linkIndex="7" dir="s" state="O"/>
    <connection from="SC" to="CW" fromLane="0" toLane="0" via=":C_8_0" tl="gneJ1" linkIndex="8" dir="l" state="o"/>
    <connection from="WC" to="CS" fromLane="0" toLane="0" via=":C_9_0" tl="gneJ1" linkIndex="9" dir="r" state="o"/>
    <connection from="WC" to="CE" fromLane="0" toLane="0" via=":C_10_0" tl="gneJ1" linkIndex="10" dir="s" state="o"/>
    <connection from="WC" to="CN" fromLane="0" toLane="0" via=":C_11_0" tl="gneJ1" linkIndex="11" dir="l" state="o"/>

    <connection from=":C_0" to="CW" fromLane="0" toLane="0" dir="r" state="M"/>
    <connection from=":C_1" to="CS" fromLane="0" toLane="0" dir="s" state="M"/>
    <connection from=":C_2" to="CE" fromLane="0" toLane="0" via=":C_12_0" dir="l" state="m"/>
    <connection from=":C_12" to="CE" fromLane="0" toLane="0" dir="l" state="M"/>
    <connection from=":C_3" to="CN" fromLane="0" toLane="0" dir="r" state="M"/>
    <connection from=":C_4" to="CW" fromLane="0" toLane="0" dir="s" state="M"/>
    <connection from=":C_5" to="CS" fromLane="0" toLane="0" via=":C_13_0" dir="l" state="m"/>
    <connection from=":C_13" to="CS" fromLane="0" toLane="0" dir="l" state="M"/>
    <connection from=":C_6" to="CE" fromLane="0" toLane="0" dir="r" state="M"/>
    <connection from=":C_7" to="CN" fromLane="0" toLane="0" dir="s" state="M"/>
    <connection from=":C_8" to="CW" fromLane="0" toLane="0" via=":C_14_0" dir="l" state="m"/>
    <connection from=":C_14" to="CW" fromLane="0" toLane="0" dir="l" state="M"/>
    <connection from=":C_9" to="CS" fromLane="0" toLane="0" dir="r" state="M"/>
    <connection from=":C_10" to="CE" fromLane="0" toLane="0" dir="s" state="M"/>
    <connection from=":C_11" to="CN" fromLane="0" toLane="0" via=":C_15_0" dir="l" state="m"/>
    <connection from=":C_15" to="CN" fromLane="0" toLane="0" dir="l" state="M"/>

</net>
