<?xml version="1.0" encoding="UTF-8"?>

<!-- generated on Wed 22 Apr 2020 01:55:38 PM EDT by Eclipse SUMO netedit Version 1.5.0
<configuration xmlns:xsi="http://www.w3.org/2001/XMLSchema-instance" xsi:noNamespaceSchemaLocation="http://sumo.dlr.de/xsd/netconvertConfiguration.xsd">

    <input>
        <sumo-net-file value="/home/ryan/Documents/GradSchool/ReinforcementLearning/Projects/TrafficLightRL/src/data/first.net.xml"/>
    </input>

    <output>
        <output-file value="/home/ryan/Documents/GradSchool/ReinforcementLearning/Projects/TrafficLightRL/src/data/first.net.xml"/>
    </output>

    <processing>
        <geometry.min-radius.fix.railways value="false"/>
        <geometry.max-grade.fix value="false"/>
        <offset.disable-normalization value="true"/>
        <lefthand value="false"/>
    </processing>

    <junctions>
        <no-turnarounds value="true"/>
        <junctions.corner-detail value="5"/>
        <junctions.limit-turn-speed value="5.5"/>
        <rectangular-lane-cut value="false"/>
    </junctions>

    <pedestrian>
        <walkingareas value="false"/>
    </pedestrian>

    <report>
        <aggregate-warnings value="5"/>
    </report>

</configuration>
-->

<net version="1.3" junctionCornerDetail="5" limitTurnSpeed="5.50" xmlns:xsi="http://www.w3.org/2001/XMLSchema-instance" xsi:noNamespaceSchemaLocation="http://sumo.dlr.de/xsd/net_file.xsd">

    <location netOffset="0.00,0.00" convBoundary="0.00,0.00,2000.00,2000.00" origBoundary="-10000000000.00,-10000000000.00,10000000000.00,10000000000.00" projParameter="!"/>

    <edge id=":C_0" function="internal">
        <lane id=":C_0_0" index="0" speed="13.89" length="14.40" shape="998.40,1007.20 998.40,992.80"/>
    </edge>
    <edge id=":C_1" function="internal">
        <lane id=":C_1_0" index="0" speed="13.89" length="14.40" shape="1007.20,1001.60 992.80,1001.60"/>
    </edge>
    <edge id=":C_2" function="internal">
        <lane id=":C_2_0" index="0" speed="13.89" length="14.40" shape="1001.60,992.80 1001.60,1007.20"/>
    </edge>
    <edge id=":C_3" function="internal">
        <lane id=":C_3_0" index="0" speed="13.89" length="14.40" shape="992.80,998.40 1007.20,998.40"/>
    </edge>

    <edge id="CE" from="C" to="E" priority="-1" length="1000.00">
        <lane id="CE_0" index="0" speed="13.89" length="1000.00" shape="1007.20,998.40 2000.00,998.40"/>
    </edge>
    <edge id="CN" from="C" to="N" priority="-1" length="1000.00">
        <lane id="CN_0" index="0" speed="13.89" length="1000.00" shape="1001.60,1007.20 1001.60,2000.00"/>
    </edge>
    <edge id="CS" from="C" to="S" priority="-1" length="1000.00">
        <lane id="CS_0" index="0" speed="13.89" length="1000.00" shape="998.40,992.80 998.40,0.00"/>
    </edge>
    <edge id="CW" from="C" to="W" priority="-1" length="1000.00">
        <lane id="CW_0" index="0" speed="13.89" length="1000.00" shape="992.80,1001.60 0.00,1001.60"/>
    </edge>
    <edge id="EC" from="E" to="C" priority="-1" length="1000.00">
        <lane id="EC_0" index="0" speed="13.89" length="1000.00" shape="2000.00,1001.60 1007.20,1001.60"/>
    </edge>
    <edge id="NC" from="N" to="C" priority="-1" length="1000.00">
        <lane id="NC_0" index="0" speed="13.89" length="1000.00" shape="998.40,2000.00 998.40,1007.20"/>
    </edge>
    <edge id="SC" from="S" to="C" priority="-1" length="1000.00">
        <lane id="SC_0" index="0" speed="13.89" length="1000.00" shape="1001.60,0.00 1001.60,992.80"/>
    </edge>
    <edge id="WC" from="W" to="C" priority="-1" length="1000.00">
        <lane id="WC_0" index="0" speed="13.89" length="1000.00" shape="0.00,998.40 992.80,998.40"/>
    </edge>

    <tlLogic id="C" type="static" programID="0" offset="0">
        <phase duration="1"  state="GrGr"/>  <!--NS go -->
        <phase duration="3"  state="yryr"/>
        <phase duration="1"  state="rGrG"/>  <!--EW go-->
        <phase duration="3"  state="ryry"/>
    </tlLogic>

    <junction id="C" type="traffic_light" x="1000.00" y="1000.00" incLanes="NC_0 EC_0 SC_0 WC_0" intLanes=":C_0_0 :C_1_0 :C_2_0 :C_3_0" shape="996.80,1007.20 1003.20,1007.20 1003.64,1004.98 1004.20,1004.20 1004.98,1003.64 1005.98,1003.31 1007.20,1003.20 1007.20,996.80 1004.98,996.36 1004.20,995.80 1003.64,995.02 1003.31,994.02 1003.20,992.80 996.80,992.80 996.36,995.02 995.80,995.80 995.02,996.36 994.02,996.69 992.80,996.80 992.80,1003.20 995.02,1003.64 995.80,1004.20 996.36,1004.98 996.69,1005.98">
        <request index="0" response="0000" foes="1010" cont="0"/>
        <request index="1" response="0101" foes="0101" cont="0"/>
        <request index="2" response="0000" foes="1010" cont="0"/>
        <request index="3" response="0101" foes="0101" cont="0"/>
    </junction>
    <junction id="E" type="dead_end" x="2000.00" y="1000.00" incLanes="CE_0" intLanes="" shape="2000.00,1000.00 2000.00,996.80 2000.00,1000.00"/>
    <junction id="N" type="dead_end" x="1000.00" y="2000.00" incLanes="CN_0" intLanes="" shape="1000.00,2000.00 1003.20,2000.00 1000.00,2000.00"/>
    <junction id="S" type="dead_end" x="1000.00" y="0.00" incLanes="CS_0" intLanes="" shape="1000.00,0.00 996.80,0.00 1000.00,0.00"/>
    <junction id="W" type="dead_end" x="0.00" y="1000.00" incLanes="CW_0" intLanes="" shape="0.00,1000.00 0.00,1003.20 0.00,1000.00"/>

    <connection from="EC" to="CW" fromLane="0" toLane="0" via=":C_1_0" tl="C" linkIndex="1" dir="s" state="o"/>
    <connection from="NC" to="CS" fromLane="0" toLane="0" via=":C_0_0" tl="C" linkIndex="0" dir="s" state="O"/>
    <connection from="SC" to="CN" fromLane="0" toLane="0" via=":C_2_0" tl="C" linkIndex="2" dir="s" state="O"/>
    <connection from="WC" to="CE" fromLane="0" toLane="0" via=":C_3_0" tl="C" linkIndex="3" dir="s" state="o"/>

    <connection from=":C_0" to="CS" fromLane="0" toLane="0" dir="s" state="M"/>
    <connection from=":C_1" to="CW" fromLane="0" toLane="0" dir="s" state="M"/>
    <connection from=":C_2" to="CN" fromLane="0" toLane="0" dir="s" state="M"/>
    <connection from=":C_3" to="CE" fromLane="0" toLane="0" dir="s" state="M"/>

</net>
