<?xml version="1.0" encoding="UTF-8"?>

<!-- generated on Thu 16 Apr 2020 04:41:44 PM EDT by Eclipse SUMO netedit Version 1.5.0
<configuration xmlns:xsi="http://www.w3.org/2001/XMLSchema-instance" xsi:noNamespaceSchemaLocation="http://sumo.dlr.de/xsd/netconvertConfiguration.xsd">

    <input>
        <sumo-net-file value="/home/ryan/Documents/GradSchool/ReinforcementLearning/Projects/RL_TrafficLights/MyFirstTraCl/data/first.net.xml"/>
    </input>

    <output>
        <output-file value="/home/ryan/Documents/GradSchool/ReinforcementLearning/Projects/RL_TrafficLights/MyFirstTraCl/data/first.net.xml"/>
    </output>

    <processing>
        <geometry.min-radius.fix.railways value="false"/>
        <geometry.max-grade.fix value="false"/>
        <offset.disable-normalization value="true"/>
        <lefthand value="false"/>
    </processing>

    <junctions>
        <no-turnarounds value="true"/>
        <junctions.corner-detail value="5"/>
        <junctions.limit-turn-speed value="5.5"/>
        <rectangular-lane-cut value="false"/>
    </junctions>

    <pedestrian>
        <walkingareas value="false"/>
    </pedestrian>

    <netedit>
        <route-files value="/home/ryan/Documents/GradSchool/ReinforcementLearning/Projects/RL_TrafficLights/MyFirstTraCl/data/first.rou.xml"/>
    </netedit>

    <report>
        <aggregate-warnings value="5"/>
    </report>

</configuration>
-->

<routes xmlns:xsi="http://www.w3.org/2001/XMLSchema-instance" xsi:noNamespaceSchemaLocation="http://sumo.dlr.de/xsd/routes_file.xsd">
    <flow id="flow_0" begin="0.00" from="SC" to="CE" end="10000.00" probability="0.015"/>
    <flow id="flow_1" begin="0.00" from="SC" to="CN" end="10000.00" probability="0.015"/>
    <flow id="flow_10" begin="0.00" from="WC" to="CE" end="10000.00" probability="0.015"/>
    <flow id="flow_11" begin="0.00" from="WC" to="CN" end="10000.00" probability="0.015"/>
    <flow id="flow_2" begin="0.00" from="SC" to="CW" end="10000.00" probability="0.015"/>
    <flow id="flow_3" begin="0.00" from="EC" to="CN" end="10000.00" probability="0.015"/>
    <flow id="flow_4" begin="0.00" from="EC" to="CW" end="10000.00" probability="0.015"/>
    <flow id="flow_5" begin="0.00" from="EC" to="CS" end="10000.00" probability="0.015"/>
    <flow id="flow_6" begin="0.00" from="NC" to="CW" end="10000.00" probability="0.015"/>
    <flow id="flow_7" begin="0.00" from="NC" to="CS" end="10000.00" probability="0.015"/>
    <flow id="flow_8" begin="0.00" from="NC" to="CE" end="10000.00" probability="0.015"/>
    <flow id="flow_9" begin="0.00" from="WC" to="CS" end="10000.00" probability="0.015"/>
</routes>
