<?xml version="1.0" encoding="UTF-8"?>

<!-- generated on Wed 22 Apr 2020 06:27:45 PM EDT by Eclipse SUMO netedit Version 1.5.0
<configuration xmlns:xsi="http://www.w3.org/2001/XMLSchema-instance" xsi:noNamespaceSchemaLocation="http://sumo.dlr.de/xsd/netconvertConfiguration.xsd">

    <input>
        <sumo-net-file value="/home/ryan/Documents/GradSchool/ReinforcementLearning/Projects/TrafficLightRL/src/data/first.net.xml"/>
    </input>

    <output>
        <output-file value="/home/ryan/Documents/GradSchool/ReinforcementLearning/Projects/TrafficLightRL/src/data/first.net.xml"/>
    </output>

    <processing>
        <geometry.min-radius.fix.railways value="false"/>
        <geometry.max-grade.fix value="false"/>
        <offset.disable-normalization value="true"/>
        <lefthand value="false"/>
    </processing>

    <junctions>
        <no-turnarounds value="true"/>
        <junctions.corner-detail value="5"/>
        <junctions.limit-turn-speed value="5.5"/>
        <rectangular-lane-cut value="false"/>
    </junctions>

    <pedestrian>
        <walkingareas value="false"/>
    </pedestrian>

    <netedit>
        <route-files value="/home/ryan/Documents/GradSchool/ReinforcementLearning/Projects/TrafficLightRL/src/data/TravelTime.rou.xml"/>
    </netedit>

    <report>
        <aggregate-warnings value="5"/>
    </report>

</configuration>
-->

<routes xmlns:xsi="http://www.w3.org/2001/XMLSchema-instance" xsi:noNamespaceSchemaLocation="http://sumo.dlr.de/xsd/routes_file.xsd">
  <flow id="flow_0" begin="0.00" from="SC" to="CN" end="7200.00" probability="0.011"/>
  <flow id="flow_1" begin="0.00" from="NC" to="CS" end="7200.00" probability="0.011"/>
</routes>
